data_uio66_vesta_conv
_audit_creation_date              Monday 26 August 2019             
_audit_creation_method            Lammps Interface v.0              
_symmetry_space_group_name_H-M    P1                                
_symmetry_Int_Tables_number       1                                 
_symmetry_cell_setting            triclinic                         
loop_
_symmetry_equiv_pos_as_xyz        
'x, y, z'                         
_cell_length_a                    20.9784 
_cell_length_b                    20.9784 
_cell_length_c                    20.9784 
_cell_angle_alpha                 90.0000 
_cell_angle_beta                  90.0000 
_cell_angle_gamma                 90.0000 
loop_
_atom_site_label                  
_atom_site_type_symbol            
_atom_site_description            
_atom_site_fract_x                
_atom_site_fract_y                
_atom_site_fract_z                
_atom_type_partial_charge         
H1      H      H_       0.00645    0.28000    0.13555    0.00000 
H2      H      H_       0.99355    0.72000    0.13555    0.00000 
H3      H      H_       0.00645    0.22000    0.36445    0.00000 
H4      H      H_       0.99355    0.78000    0.36445    0.00000 
H5      H      H_       0.13555    0.49355    0.22000    0.00000 
H6      H      H_       0.22000    0.36445    0.00645    0.00000 
H7      H      H_       0.86445    0.50645    0.22000    0.00000 
H8      H      H_       0.78000    0.86445    0.49355    0.00000 
H9      H      H_       0.13555    0.00645    0.28000    0.00000 
H10     H      H_       0.78000    0.63555    0.00645    0.00000 
H11     H      H_       0.86445    0.99355    0.28000    0.00000 
H12     H      H_       0.22000    0.13555    0.49355    0.00000 
H13     H      H_       0.22000    0.49355    0.13555    0.00000 
H14     H      H_       0.78000    0.50645    0.13555    0.00000 
H15     H      H_       0.78000    0.99355    0.36445    0.00000 
H16     H      H_       0.22000    0.00645    0.36445    0.00000 
H17     H      H_       0.00645    0.36445    0.22000    0.00000 
H18     H      H_       0.13555    0.28000    0.00645    0.00000 
H19     H      H_       0.99355    0.63555    0.22000    0.00000 
H20     H      H_       0.13555    0.22000    0.49355    0.00000 
H21     H      H_       0.99355    0.86445    0.28000    0.00000 
H22     H      H_       0.86445    0.72000    0.00645    0.00000 
H23     H      H_       0.00645    0.13555    0.28000    0.00000 
H24     H      H_       0.86445    0.78000    0.49355    0.00000 
H25     H      H_       0.90623    0.40623    0.40623    0.00000 
H26     H      H_       0.59377    0.40623    0.09377    0.00000 
H27     H      H_       0.59377    0.09377    0.40623    0.00000 
H28     H      H_       0.90623    0.09377    0.09377    0.00000 
C29     C      C_R      0.49590    0.15235    0.34765    0.00000 
C30     C      C_R      0.00650    0.26745    0.18565    0.00000 
C31     C      C_R      0.99350    0.73255    0.18565    0.00000 
C32     C      C_R      0.00650    0.23255    0.31435    0.00000 
C33     C      C_R      0.99350    0.76745    0.31435    0.00000 
C34     C      C_R      0.18565    0.49350    0.23255    0.00000 
C35     C      C_R      0.23255    0.31435    0.00650    0.00000 
C36     C      C_R      0.81435    0.50650    0.23255    0.00000 
C37     C      C_R      0.76745    0.81435    0.49350    0.00000 
C38     C      C_R      0.18565    0.00650    0.26745    0.00000 
C39     C      C_R      0.76745    0.68565    0.00650    0.00000 
C40     C      C_R      0.81435    0.99350    0.26745    0.00000 
C41     C      C_R      0.23255    0.18565    0.49350    0.00000 
C42     C      C_R      0.23255    0.49350    0.18565    0.00000 
C43     C      C_R      0.76745    0.50650    0.18565    0.00000 
C44     C      C_R      0.76745    0.99350    0.31435    0.00000 
C45     C      C_R      0.23255    0.00650    0.31435    0.00000 
C46     C      C_R      0.00650    0.31435    0.23255    0.00000 
C47     C      C_R      0.18565    0.26745    0.00650    0.00000 
C48     C      C_R      0.99350    0.68565    0.23255    0.00000 
C49     C      C_R      0.18565    0.23255    0.49350    0.00000 
C50     C      C_R      0.99350    0.81435    0.26745    0.00000 
C51     C      C_R      0.81435    0.73255    0.00650    0.00000 
C52     C      C_R      0.00650    0.18565    0.26745    0.00000 
C53     C      C_R      0.81435    0.76745    0.49350    0.00000 
C54     C      C_R      0.00410    0.34765    0.34765    0.00000 
C55     C      C_R      0.49590    0.34765    0.15235    0.00000 
C56     C      C_R      0.00410    0.15235    0.15235    0.00000 
C57     C      C_R      0.34765    0.00410    0.34765    0.00000 
C58     C      C_R      0.34765    0.15235    0.49590    0.00000 
C59     C      C_R      0.15235    0.49590    0.34765    0.00000 
C60     C      C_R      0.15235    0.15235    0.00410    0.00000 
C61     C      C_R      0.34765    0.49590    0.15235    0.00000 
C62     C      C_R      0.15235    0.34765    0.49590    0.00000 
C63     C      C_R      0.15235    0.00410    0.15235    0.00000 
C64     C      C_R      0.34765    0.34765    0.00410    0.00000 
C65     C      C_R      0.29715    0.49380    0.20285    0.00000 
C66     C      C_R      0.20285    0.00620    0.20285    0.00000 
C67     C      C_R      0.20285    0.49380    0.29715    0.00000 
C68     C      C_R      0.29715    0.00620    0.29715    0.00000 
C69     C      C_R      0.00620    0.29715    0.29715    0.00000 
C70     C      C_R      0.20285    0.20285    0.00620    0.00000 
C71     C      C_R      0.49380    0.20285    0.29715    0.00000 
C72     C      C_R      0.20285    0.29715    0.49380    0.00000 
C73     C      C_R      0.49380    0.29715    0.20285    0.00000 
C74     C      C_R      0.29715    0.29715    0.00620    0.00000 
C75     C      C_R      0.00620    0.20285    0.20285    0.00000 
C76     C      C_R      0.29715    0.20285    0.49380    0.00000 
O77     O      O_3      0.56727    0.06727    0.43273    0.00000 
O78     O      O_R      0.00260    0.17075    0.09455    0.00000 
O79     O      O_R      0.99740    0.82925    0.09455    0.00000 
O80     O      O_R      0.00260    0.32925    0.40545    0.00000 
O81     O      O_R      0.99740    0.67075    0.40545    0.00000 
O82     O      O_R      0.09455    0.49740    0.32925    0.00000 
O83     O      O_R      0.32925    0.40545    0.00260    0.00000 
O84     O      O_R      0.90545    0.50260    0.32925    0.00000 
O85     O      O_R      0.67075    0.90545    0.49740    0.00000 
O86     O      O_R      0.09455    0.00260    0.17075    0.00000 
O87     O      O_R      0.67075    0.59455    0.00260    0.00000 
O88     O      O_R      0.90545    0.99740    0.17075    0.00000 
O89     O      O_R      0.32925    0.09455    0.49740    0.00000 
O90     O      O_R      0.32925    0.49740    0.09455    0.00000 
O91     O      O_R      0.67075    0.50260    0.09455    0.00000 
O92     O      O_R      0.67075    0.99740    0.40545    0.00000 
O93     O      O_R      0.32925    0.00260    0.40545    0.00000 
O94     O      O_R      0.00260    0.40545    0.32925    0.00000 
O95     O      O_R      0.09455    0.17075    0.00260    0.00000 
O96     O      O_R      0.99740    0.59455    0.32925    0.00000 
O97     O      O_R      0.09455    0.32925    0.49740    0.00000 
O98     O      O_R      0.99740    0.90545    0.17075    0.00000 
O99     O      O_R      0.90545    0.82925    0.00260    0.00000 
O100    O      O_R      0.00260    0.09455    0.17075    0.00000 
O101    O      O_R      0.90545    0.67075    0.49740    0.00000 
O102    O      O_3      0.93273    0.43273    0.43273    0.00000 
O103    O      O_3      0.56727    0.43273    0.06727    0.00000 
O104    O      O_3      0.93273    0.06727    0.06727    0.00000 
O105    O      O_2      0.45057    0.45057    0.04943    0.00000 
O106    O      O_2      0.04943    0.45057    0.45057    0.00000 
O107    O      O_2      0.45057    0.04943    0.45057    0.00000 
O108    O      O_2      0.04943    0.04943    0.04943    0.00000 
Zr109   Zr     Zr3+4    0.00000    0.12040    0.00000    0.00000 
Zr110   Zr     Zr3+4    0.00000    0.87960    0.00000    0.00000 
Zr111   Zr     Zr3+4   -0.00000    0.50000    0.37960    0.00000 
Zr112   Zr     Zr3+4    0.37960    0.50000    0.00000    0.00000 
Zr113   Zr     Zr3+4    0.62040    0.50000    0.00000    0.00000 
Zr114   Zr     Zr3+4    0.00000    0.00000    0.12040    0.00000 
H115    H      H_       0.00645    0.78000    0.63555    0.00000 
H116    H      H_       0.99355    0.22000    0.63555    0.00000 
H117    H      H_       0.00645    0.72000    0.86445    0.00000 
H118    H      H_       0.99355    0.28000    0.86445    0.00000 
H119    H      H_       0.13555    0.99355    0.72000    0.00000 
H120    H      H_       0.22000    0.86445    0.50645    0.00000 
H121    H      H_       0.86445    0.00645    0.72000    0.00000 
H122    H      H_       0.78000    0.36445    0.99355    0.00000 
H123    H      H_       0.13555    0.50645    0.78000    0.00000 
H124    H      H_       0.78000    0.13555    0.50645    0.00000 
H125    H      H_       0.86445    0.49355    0.78000    0.00000 
H126    H      H_       0.22000    0.63555    0.99355    0.00000 
H127    H      H_       0.22000    0.99355    0.63555    0.00000 
H128    H      H_       0.78000    0.00645    0.63555    0.00000 
H129    H      H_       0.78000    0.49355    0.86445    0.00000 
H130    H      H_       0.22000    0.50645    0.86445    0.00000 
H131    H      H_       0.00645    0.86445    0.72000    0.00000 
H132    H      H_       0.13555    0.78000    0.50645    0.00000 
H133    H      H_       0.99355    0.13555    0.72000    0.00000 
H134    H      H_       0.13555    0.72000    0.99355    0.00000 
H135    H      H_       0.99355    0.36445    0.78000    0.00000 
H136    H      H_       0.86445    0.22000    0.50645    0.00000 
H137    H      H_       0.00645    0.63555    0.78000    0.00000 
H138    H      H_       0.86445    0.28000    0.99355    0.00000 
H139    H      H_       0.90623    0.90623    0.90623    0.00000 
H140    H      H_       0.59377    0.90623    0.59377    0.00000 
H141    H      H_       0.59377    0.59377    0.90623    0.00000 
H142    H      H_       0.90623    0.59377    0.59377    0.00000 
C143    C      C_R      0.49590    0.65235    0.84765    0.00000 
C144    C      C_R      0.00650    0.76745    0.68565    0.00000 
C145    C      C_R      0.99350    0.23255    0.68565    0.00000 
C146    C      C_R      0.00650    0.73255    0.81435    0.00000 
C147    C      C_R      0.99350    0.26745    0.81435    0.00000 
C148    C      C_R      0.18565    0.99350    0.73255    0.00000 
C149    C      C_R      0.23255    0.81435    0.50650    0.00000 
C150    C      C_R      0.81435    0.00650    0.73255    0.00000 
C151    C      C_R      0.76745    0.31435    0.99350    0.00000 
C152    C      C_R      0.18565    0.50650    0.76745    0.00000 
C153    C      C_R      0.76745    0.18565    0.50650    0.00000 
C154    C      C_R      0.81435    0.49350    0.76745    0.00000 
C155    C      C_R      0.23255    0.68565    0.99350    0.00000 
C156    C      C_R      0.23255    0.99350    0.68565    0.00000 
C157    C      C_R      0.76745    0.00650    0.68565    0.00000 
C158    C      C_R      0.76745    0.49350    0.81435    0.00000 
C159    C      C_R      0.23255    0.50650    0.81435    0.00000 
C160    C      C_R      0.00650    0.81435    0.73255    0.00000 
C161    C      C_R      0.18565    0.76745    0.50650    0.00000 
C162    C      C_R      0.99350    0.18565    0.73255    0.00000 
C163    C      C_R      0.18565    0.73255    0.99350    0.00000 
C164    C      C_R      0.99350    0.31435    0.76745    0.00000 
C165    C      C_R      0.81435    0.23255    0.50650    0.00000 
C166    C      C_R      0.00650    0.68565    0.76745    0.00000 
C167    C      C_R      0.81435    0.26745    0.99350    0.00000 
C168    C      C_R      0.00410    0.84765    0.84765    0.00000 
C169    C      C_R      0.49590    0.84765    0.65235    0.00000 
C170    C      C_R      0.00410    0.65235    0.65235    0.00000 
C171    C      C_R      0.34765    0.50410    0.84765    0.00000 
C172    C      C_R      0.34765    0.65235    0.99590    0.00000 
C173    C      C_R      0.15235    0.99590    0.84765    0.00000 
C174    C      C_R      0.15235    0.65235    0.50410    0.00000 
C175    C      C_R      0.34765    0.99590    0.65235    0.00000 
C176    C      C_R      0.15235    0.84765    0.99590    0.00000 
C177    C      C_R      0.15235    0.50410    0.65235    0.00000 
C178    C      C_R      0.34765    0.84765    0.50410    0.00000 
C179    C      C_R      0.29715    0.99380    0.70285    0.00000 
C180    C      C_R      0.20285    0.50620    0.70285    0.00000 
C181    C      C_R      0.20285    0.99380    0.79715    0.00000 
C182    C      C_R      0.29715    0.50620    0.79715    0.00000 
C183    C      C_R      0.00620    0.79715    0.79715    0.00000 
C184    C      C_R      0.20285    0.70285    0.50620    0.00000 
C185    C      C_R      0.49380    0.70285    0.79715    0.00000 
C186    C      C_R      0.20285    0.79715    0.99380    0.00000 
C187    C      C_R      0.49380    0.79715    0.70285    0.00000 
C188    C      C_R      0.29715    0.79715    0.50620    0.00000 
C189    C      C_R      0.00620    0.70285    0.70285    0.00000 
C190    C      C_R      0.29715    0.70285    0.99380    0.00000 
O191    O      O_3      0.56727    0.56727    0.93273    0.00000 
O192    O      O_R      0.00260    0.67075    0.59455    0.00000 
O193    O      O_R      0.99740    0.32925    0.59455    0.00000 
O194    O      O_R      0.00260    0.82925    0.90545    0.00000 
O195    O      O_R      0.99740    0.17075    0.90545    0.00000 
O196    O      O_R      0.09455    0.99740    0.82925    0.00000 
O197    O      O_R      0.32925    0.90545    0.50260    0.00000 
O198    O      O_R      0.90545    0.00260    0.82925    0.00000 
O199    O      O_R      0.67075    0.40545    0.99740    0.00000 
O200    O      O_R      0.09455    0.50260    0.67075    0.00000 
O201    O      O_R      0.67075    0.09455    0.50260    0.00000 
O202    O      O_R      0.90545    0.49740    0.67075    0.00000 
O203    O      O_R      0.32925    0.59455    0.99740    0.00000 
O204    O      O_R      0.32925    0.99740    0.59455    0.00000 
O205    O      O_R      0.67075    0.00260    0.59455    0.00000 
O206    O      O_R      0.67075    0.49740    0.90545    0.00000 
O207    O      O_R      0.32925    0.50260    0.90545    0.00000 
O208    O      O_R      0.00260    0.90545    0.82925    0.00000 
O209    O      O_R      0.09455    0.67075    0.50260    0.00000 
O210    O      O_R      0.99740    0.09455    0.82925    0.00000 
O211    O      O_R      0.09455    0.82925    0.99740    0.00000 
O212    O      O_R      0.99740    0.40545    0.67075    0.00000 
O213    O      O_R      0.90545    0.32925    0.50260    0.00000 
O214    O      O_R      0.00260    0.59455    0.67075    0.00000 
O215    O      O_R      0.90545    0.17075    0.99740    0.00000 
O216    O      O_3      0.93273    0.93273    0.93273    0.00000 
O217    O      O_3      0.56727    0.93273    0.56727    0.00000 
O218    O      O_3      0.93273    0.56727    0.56727    0.00000 
O219    O      O_2      0.45057    0.95057    0.54943    0.00000 
O220    O      O_2      0.04943    0.95057    0.95057    0.00000 
O221    O      O_2      0.45057    0.54943    0.95057    0.00000 
O222    O      O_2      0.04943    0.54943    0.54943    0.00000 
Zr223   Zr     Zr3+4    0.00000    0.62040    0.50000    0.00000 
Zr224   Zr     Zr3+4   -0.00000    0.37960    0.50000    0.00000 
Zr225   Zr     Zr3+4    0.00000    0.00000    0.87960    0.00000 
Zr226   Zr     Zr3+4    0.37960    0.00000    0.50000    0.00000 
Zr227   Zr     Zr3+4    0.62040    0.00000    0.50000    0.00000 
Zr228   Zr     Zr3+4    0.00000    0.50000    0.62040    0.00000 
H229    H      H_       0.50645    0.28000    0.63555    0.00000 
H230    H      H_       0.49355    0.72000    0.63555    0.00000 
H231    H      H_       0.50645    0.22000    0.86445    0.00000 
H232    H      H_       0.49355    0.78000    0.86445    0.00000 
H233    H      H_       0.63555    0.49355    0.72000    0.00000 
H234    H      H_       0.72000    0.36445    0.50645    0.00000 
H235    H      H_       0.36445    0.50645    0.72000    0.00000 
H236    H      H_       0.28000    0.86445    0.99355    0.00000 
H237    H      H_       0.63555    0.00645    0.78000    0.00000 
H238    H      H_       0.28000    0.63555    0.50645    0.00000 
H239    H      H_       0.36445    0.99355    0.78000    0.00000 
H240    H      H_       0.72000    0.13555    0.99355    0.00000 
H241    H      H_       0.72000    0.49355    0.63555    0.00000 
H242    H      H_       0.28000    0.50645    0.63555    0.00000 
H243    H      H_       0.28000    0.99355    0.86445    0.00000 
H244    H      H_       0.72000    0.00645    0.86445    0.00000 
H245    H      H_       0.50645    0.36445    0.72000    0.00000 
H246    H      H_       0.63555    0.28000    0.50645    0.00000 
H247    H      H_       0.49355    0.63555    0.72000    0.00000 
H248    H      H_       0.63555    0.22000    0.99355    0.00000 
H249    H      H_       0.49355    0.86445    0.78000    0.00000 
H250    H      H_       0.36445    0.72000    0.50645    0.00000 
H251    H      H_       0.50645    0.13555    0.78000    0.00000 
H252    H      H_       0.36445    0.78000    0.99355    0.00000 
H253    H      H_       0.40623    0.40623    0.90623    0.00000 
H254    H      H_       0.09377    0.40623    0.59377    0.00000 
H255    H      H_       0.09377    0.09377    0.90623    0.00000 
H256    H      H_       0.40623    0.09377    0.59377    0.00000 
C257    C      C_R      0.99590    0.15235    0.84765    0.00000 
C258    C      C_R      0.50650    0.26745    0.68565    0.00000 
C259    C      C_R      0.49350    0.73255    0.68565    0.00000 
C260    C      C_R      0.50650    0.23255    0.81435    0.00000 
C261    C      C_R      0.49350    0.76745    0.81435    0.00000 
C262    C      C_R      0.68565    0.49350    0.73255    0.00000 
C263    C      C_R      0.73255    0.31435    0.50650    0.00000 
C264    C      C_R      0.31435    0.50650    0.73255    0.00000 
C265    C      C_R      0.26745    0.81435    0.99350    0.00000 
C266    C      C_R      0.68565    0.00650    0.76745    0.00000 
C267    C      C_R      0.26745    0.68565    0.50650    0.00000 
C268    C      C_R      0.31435    0.99350    0.76745    0.00000 
C269    C      C_R      0.73255    0.18565    0.99350    0.00000 
C270    C      C_R      0.73255    0.49350    0.68565    0.00000 
C271    C      C_R      0.26745    0.50650    0.68565    0.00000 
C272    C      C_R      0.26745    0.99350    0.81435    0.00000 
C273    C      C_R      0.73255    0.00650    0.81435    0.00000 
C274    C      C_R      0.50650    0.31435    0.73255    0.00000 
C275    C      C_R      0.68565    0.26745    0.50650    0.00000 
C276    C      C_R      0.49350    0.68565    0.73255    0.00000 
C277    C      C_R      0.68565    0.23255    0.99350    0.00000 
C278    C      C_R      0.49350    0.81435    0.76745    0.00000 
C279    C      C_R      0.31435    0.73255    0.50650    0.00000 
C280    C      C_R      0.50650    0.18565    0.76745    0.00000 
C281    C      C_R      0.31435    0.76745    0.99350    0.00000 
C282    C      C_R      0.50410    0.34765    0.84765    0.00000 
C283    C      C_R      0.99590    0.34765    0.65235    0.00000 
C284    C      C_R      0.50410    0.15235    0.65235    0.00000 
C285    C      C_R      0.84765    0.00410    0.84765    0.00000 
C286    C      C_R      0.84765    0.15235    0.99590    0.00000 
C287    C      C_R      0.65235    0.49590    0.84765    0.00000 
C288    C      C_R      0.65235    0.15235    0.50410    0.00000 
C289    C      C_R      0.84765    0.49590    0.65235    0.00000 
C290    C      C_R      0.65235    0.34765    0.99590    0.00000 
C291    C      C_R      0.65235    0.00410    0.65235    0.00000 
C292    C      C_R      0.84765    0.34765    0.50410    0.00000 
C293    C      C_R      0.79715    0.49380    0.70285    0.00000 
C294    C      C_R      0.70285    0.00620    0.70285    0.00000 
C295    C      C_R      0.70285    0.49380    0.79715    0.00000 
C296    C      C_R      0.79715    0.00620    0.79715    0.00000 
C297    C      C_R      0.50620    0.29715    0.79715    0.00000 
C298    C      C_R      0.70285    0.20285    0.50620    0.00000 
C299    C      C_R      0.99380    0.20285    0.79715    0.00000 
C300    C      C_R      0.70285    0.29715    0.99380    0.00000 
C301    C      C_R      0.99380    0.29715    0.70285    0.00000 
C302    C      C_R      0.79715    0.29715    0.50620    0.00000 
C303    C      C_R      0.50620    0.20285    0.70285    0.00000 
C304    C      C_R      0.79715    0.20285    0.99380    0.00000 
O305    O      O_3      0.06727    0.06727    0.93273    0.00000 
O306    O      O_R      0.50260    0.17075    0.59455    0.00000 
O307    O      O_R      0.49740    0.82925    0.59455    0.00000 
O308    O      O_R      0.50260    0.32925    0.90545    0.00000 
O309    O      O_R      0.49740    0.67075    0.90545    0.00000 
O310    O      O_R      0.59455    0.49740    0.82925    0.00000 
O311    O      O_R      0.82925    0.40545    0.50260    0.00000 
O312    O      O_R      0.40545    0.50260    0.82925    0.00000 
O313    O      O_R      0.17075    0.90545    0.99740    0.00000 
O314    O      O_R      0.59455    0.00260    0.67075    0.00000 
O315    O      O_R      0.17075    0.59455    0.50260    0.00000 
O316    O      O_R      0.40545    0.99740    0.67075    0.00000 
O317    O      O_R      0.82925    0.09455    0.99740    0.00000 
O318    O      O_R      0.82925    0.49740    0.59455    0.00000 
O319    O      O_R      0.17075    0.50260    0.59455    0.00000 
O320    O      O_R      0.17075    0.99740    0.90545    0.00000 
O321    O      O_R      0.82925    0.00260    0.90545    0.00000 
O322    O      O_R      0.50260    0.40545    0.82925    0.00000 
O323    O      O_R      0.59455    0.17075    0.50260    0.00000 
O324    O      O_R      0.49740    0.59455    0.82925    0.00000 
O325    O      O_R      0.59455    0.32925    0.99740    0.00000 
O326    O      O_R      0.49740    0.90545    0.67075    0.00000 
O327    O      O_R      0.40545    0.82925    0.50260    0.00000 
O328    O      O_R      0.50260    0.09455    0.67075    0.00000 
O329    O      O_R      0.40545    0.67075    0.99740    0.00000 
O330    O      O_3      0.43273    0.43273    0.93273    0.00000 
O331    O      O_3      0.06727    0.43273    0.56727    0.00000 
O332    O      O_3      0.43273    0.06727    0.56727    0.00000 
O333    O      O_2      0.95057    0.45057    0.54943    0.00000 
O334    O      O_2      0.54943    0.45057    0.95057    0.00000 
O335    O      O_2      0.95057    0.04943    0.95057    0.00000 
O336    O      O_2      0.54943    0.04943    0.54943    0.00000 
Zr337   Zr     Zr3+4    0.50000    0.12040    0.50000    0.00000 
Zr338   Zr     Zr3+4    0.50000    0.87960    0.50000    0.00000 
Zr339   Zr     Zr3+4    0.50000    0.50000    0.87960    0.00000 
Zr340   Zr     Zr3+4    0.87960    0.50000    0.50000    0.00000 
Zr341   Zr     Zr3+4    0.12040    0.50000    0.50000    0.00000 
Zr342   Zr     Zr3+4    0.50000    0.00000    0.62040    0.00000 
H343    H      H_       0.50645    0.78000    0.13555    0.00000 
H344    H      H_       0.49355    0.22000    0.13555    0.00000 
H345    H      H_       0.50645    0.72000    0.36445    0.00000 
H346    H      H_       0.49355    0.28000    0.36445    0.00000 
H347    H      H_       0.63555    0.99355    0.22000    0.00000 
H348    H      H_       0.72000    0.86445    0.00645    0.00000 
H349    H      H_       0.36445    0.00645    0.22000    0.00000 
H350    H      H_       0.28000    0.36445    0.49355    0.00000 
H351    H      H_       0.63555    0.50645    0.28000    0.00000 
H352    H      H_       0.28000    0.13555    0.00645    0.00000 
H353    H      H_       0.36445    0.49355    0.28000    0.00000 
H354    H      H_       0.72000    0.63555    0.49355    0.00000 
H355    H      H_       0.72000    0.99355    0.13555    0.00000 
H356    H      H_       0.28000    0.00645    0.13555    0.00000 
H357    H      H_       0.28000    0.49355    0.36445    0.00000 
H358    H      H_       0.72000    0.50645    0.36445    0.00000 
H359    H      H_       0.50645    0.86445    0.22000    0.00000 
H360    H      H_       0.63555    0.78000    0.00645    0.00000 
H361    H      H_       0.49355    0.13555    0.22000    0.00000 
H362    H      H_       0.63555    0.72000    0.49355    0.00000 
H363    H      H_       0.49355    0.36445    0.28000    0.00000 
H364    H      H_       0.36445    0.22000    0.00645    0.00000 
H365    H      H_       0.50645    0.63555    0.28000    0.00000 
H366    H      H_       0.36445    0.28000    0.49355    0.00000 
H367    H      H_       0.40623    0.90623    0.40623    0.00000 
H368    H      H_       0.09377    0.90623    0.09377    0.00000 
H369    H      H_       0.09377    0.59377    0.40623    0.00000 
H370    H      H_       0.40623    0.59377    0.09377    0.00000 
C371    C      C_R      0.99590    0.65235    0.34765    0.00000 
C372    C      C_R      0.50650    0.76745    0.18565    0.00000 
C373    C      C_R      0.49350    0.23255    0.18565    0.00000 
C374    C      C_R      0.50650    0.73255    0.31435    0.00000 
C375    C      C_R      0.49350    0.26745    0.31435    0.00000 
C376    C      C_R      0.68565    0.99350    0.23255    0.00000 
C377    C      C_R      0.73255    0.81435    0.00650    0.00000 
C378    C      C_R      0.31435    0.00650    0.23255    0.00000 
C379    C      C_R      0.26745    0.31435    0.49350    0.00000 
C380    C      C_R      0.68565    0.50650    0.26745    0.00000 
C381    C      C_R      0.26745    0.18565    0.00650    0.00000 
C382    C      C_R      0.31435    0.49350    0.26745    0.00000 
C383    C      C_R      0.73255    0.68565    0.49350    0.00000 
C384    C      C_R      0.73255    0.99350    0.18565    0.00000 
C385    C      C_R      0.26745    0.00650    0.18565    0.00000 
C386    C      C_R      0.26745    0.49350    0.31435    0.00000 
C387    C      C_R      0.73255    0.50650    0.31435    0.00000 
C388    C      C_R      0.50650    0.81435    0.23255    0.00000 
C389    C      C_R      0.68565    0.76745    0.00650    0.00000 
C390    C      C_R      0.49350    0.18565    0.23255    0.00000 
C391    C      C_R      0.68565    0.73255    0.49350    0.00000 
C392    C      C_R      0.49350    0.31435    0.26745    0.00000 
C393    C      C_R      0.31435    0.23255    0.00650    0.00000 
C394    C      C_R      0.50650    0.68565    0.26745    0.00000 
C395    C      C_R      0.31435    0.26745    0.49350    0.00000 
C396    C      C_R      0.50410    0.84765    0.34765    0.00000 
C397    C      C_R      0.99590    0.84765    0.15235    0.00000 
C398    C      C_R      0.50410    0.65235    0.15235    0.00000 
C399    C      C_R      0.84765    0.50410    0.34765    0.00000 
C400    C      C_R      0.84765    0.65235    0.49590    0.00000 
C401    C      C_R      0.65235    0.99590    0.34765    0.00000 
C402    C      C_R      0.65235    0.65235    0.00410    0.00000 
C403    C      C_R      0.84765    0.99590    0.15235    0.00000 
C404    C      C_R      0.65235    0.84765    0.49590    0.00000 
C405    C      C_R      0.65235    0.50410    0.15235    0.00000 
C406    C      C_R      0.84765    0.84765    0.00410    0.00000 
C407    C      C_R      0.79715    0.99380    0.20285    0.00000 
C408    C      C_R      0.70285    0.50620    0.20285    0.00000 
C409    C      C_R      0.70285    0.99380    0.29715    0.00000 
C410    C      C_R      0.79715    0.50620    0.29715    0.00000 
C411    C      C_R      0.50620    0.79715    0.29715    0.00000 
C412    C      C_R      0.70285    0.70285    0.00620    0.00000 
C413    C      C_R      0.99380    0.70285    0.29715    0.00000 
C414    C      C_R      0.70285    0.79715    0.49380    0.00000 
C415    C      C_R      0.99380    0.79715    0.20285    0.00000 
C416    C      C_R      0.79715    0.79715    0.00620    0.00000 
C417    C      C_R      0.50620    0.70285    0.20285    0.00000 
C418    C      C_R      0.79715    0.70285    0.49380    0.00000 
O419    O      O_3      0.06727    0.56727    0.43273    0.00000 
O420    O      O_R      0.50260    0.67075    0.09455    0.00000 
O421    O      O_R      0.49740    0.32925    0.09455    0.00000 
O422    O      O_R      0.50260    0.82925    0.40545    0.00000 
O423    O      O_R      0.49740    0.17075    0.40545    0.00000 
O424    O      O_R      0.59455    0.99740    0.32925    0.00000 
O425    O      O_R      0.82925    0.90545    0.00260    0.00000 
O426    O      O_R      0.40545    0.00260    0.32925    0.00000 
O427    O      O_R      0.17075    0.40545    0.49740    0.00000 
O428    O      O_R      0.59455    0.50260    0.17075    0.00000 
O429    O      O_R      0.17075    0.09455    0.00260    0.00000 
O430    O      O_R      0.40545    0.49740    0.17075    0.00000 
O431    O      O_R      0.82925    0.59455    0.49740    0.00000 
O432    O      O_R      0.82925    0.99740    0.09455    0.00000 
O433    O      O_R      0.17075    0.00260    0.09455    0.00000 
O434    O      O_R      0.17075    0.49740    0.40545    0.00000 
O435    O      O_R      0.82925    0.50260    0.40545    0.00000 
O436    O      O_R      0.50260    0.90545    0.32925    0.00000 
O437    O      O_R      0.59455    0.67075    0.00260    0.00000 
O438    O      O_R      0.49740    0.09455    0.32925    0.00000 
O439    O      O_R      0.59455    0.82925    0.49740    0.00000 
O440    O      O_R      0.49740    0.40545    0.17075    0.00000 
O441    O      O_R      0.40545    0.32925    0.00260    0.00000 
O442    O      O_R      0.50260    0.59455    0.17075    0.00000 
O443    O      O_R      0.40545    0.17075    0.49740    0.00000 
O444    O      O_3      0.43273    0.93273    0.43273    0.00000 
O445    O      O_3      0.06727    0.93273    0.06727    0.00000 
O446    O      O_3      0.43273    0.56727    0.06727    0.00000 
O447    O      O_2      0.95057    0.95057    0.04943    0.00000 
O448    O      O_2      0.54943    0.95057    0.45057    0.00000 
O449    O      O_2      0.95057    0.54943    0.45057    0.00000 
O450    O      O_2      0.54943    0.54943    0.04943    0.00000 
Zr451   Zr     Zr3+4    0.50000    0.62040    0.00000    0.00000 
Zr452   Zr     Zr3+4    0.50000    0.37960    0.00000    0.00000 
Zr453   Zr     Zr3+4    0.50000    0.00000    0.37960    0.00000 
Zr454   Zr     Zr3+4    0.87960    0.00000    0.00000    0.00000 
Zr455   Zr     Zr3+4    0.12040    0.00000    0.00000    0.00000 
Zr456   Zr     Zr3+4    0.50000    0.50000    0.12040    0.00000 
loop_
_geom_bond_atom_site_label_1      
_geom_bond_atom_site_label_2      
_geom_bond_distance               
_geom_bond_site_symmetry_2        
_ccdc_geom_bond_type              
H1      C30       1.083 .         S 
H2      C31       1.083 .         S 
H3      C32       1.083 .         S 
H4      C33       1.083 .         S 
H5      C34       1.083 .         S 
H6      C35       1.083 .         S 
H7      C36       1.083 .         S 
H8      C37       1.083 .         S 
H9      C38       1.083 .         S 
H10     C39       1.083 .         S 
H11     C40       1.083 .         S 
H12     C41       1.083 .         S 
H13     C42       1.083 .         S 
H14     C43       1.083 .         S 
H15     C44       1.083 .         S 
H16     C45       1.083 .         S 
H17     C46       1.083 .         S 
H18     C47       1.083 .         S 
H19     C48       1.083 .         S 
H20     C49       1.083 .         S 
H21     C50       1.083 .         S 
H22     C51       1.083 .         S 
H23     C52       1.083 .         S 
H24     C53       1.083 .         S 
H25     O102      0.963 .         S 
H26     O103      0.963 .         S 
H27     O77       0.963 .         S 
H28     O104      0.963 .         S 
C29     C71       1.499 .         S 
C54     C69       1.499 .         S 
C55     C73       1.499 .         S 
C56     C75       1.499 .         S 
C57     C68       1.499 .         S 
C58     C76       1.499 .         S 
C59     C67       1.499 .         S 
C60     C70       1.499 .         S 
C61     C65       1.499 .         S 
C62     C72       1.499 .         S 
C63     C66       1.499 .         S 
C64     C74       1.499 .         S 
O77     Zr337     2.286 .         S 
O77     Zr453     2.286 .         S 
O77     Zr227     2.286 .         S 
O78     Zr109     2.248 .         S 
O79     Zr110     2.248 1_655     S 
O80     Zr224     2.248 .         S 
O81     Zr223     2.248 1_655     S 
O82     Zr111     2.248 .         S 
O83     Zr112     2.248 .         S 
O84     Zr111     2.248 1_655     S 
O85     Zr227     2.248 1_565     S 
O86     Zr114     2.248 .         S 
O87     Zr113     2.248 .         S 
O88     Zr114     2.248 1_665     S 
O89     Zr226     2.248 .         S 
O90     Zr112     2.248 .         S 
O91     Zr113     2.248 .         S 
O92     Zr227     2.248 1_565     S 
O93     Zr226     2.248 .         S 
O94     Zr111     2.248 .         S 
O95     Zr109     2.248 .         S 
O96     Zr111     2.248 1_655     S 
O97     Zr224     2.248 .         S 
O98     Zr114     2.248 1_665     S 
O99     Zr110     2.248 1_655     S 
O100    Zr114     2.248 .         S 
O101    Zr223     2.248 1_655     S 
O102    Zr224     2.286 1_655     S 
O102    Zr340     2.286 .         S 
O102    Zr111     2.286 1_655     S 
O103    Zr456     2.286 .         S 
O103    Zr113     2.286 .         S 
O103    Zr452     2.286 .         S 
O104    Zr114     2.286 1_655     S 
O104    Zr109     2.286 1_655     S 
O104    Zr454     2.286 .         S 
O105    Zr112     2.090 .         S 
O105    Zr456     2.090 .         S 
O105    Zr452     2.090 .         S 
O106    Zr224     2.090 .         S 
O106    Zr341     2.090 .         S 
O106    Zr111     2.090 .         S 
O107    Zr337     2.090 .         S 
O107    Zr226     2.090 .         S 
O107    Zr453     2.090 .         S 
O108    Zr114     2.090 .         S 
O108    Zr109     2.090 .         S 
O108    Zr455     2.090 .         S 
Zr109   O195      2.248 1_454     S 
Zr109   O335      2.090 1_454     S 
Zr109   O305      2.286 1_554     S 
Zr109   O215      2.248 1_454     S 
Zr110   O194      2.248 1_554     S 
Zr110   O211      2.248 1_554     S 
Zr110   O216      2.286 1_454     S 
Zr110   O220      2.090 1_554     S 
Zr110   O445      2.286 .         S 
Zr110   O447      2.090 1_455     S 
Zr111   O449      2.090 1_455     S 
Zr111   O419      2.286 .         S 
Zr112   O330      2.286 1_554     S 
Zr112   O203      2.248 1_554     S 
Zr112   O207      2.248 1_554     S 
Zr112   O221      2.090 1_554     S 
Zr112   O446      2.286 .         S 
Zr113   O450      2.090 .         S 
Zr113   O199      2.248 1_554     S 
Zr113   O206      2.248 1_554     S 
Zr113   O334      2.090 1_554     S 
Zr113   O191      2.286 1_554     S 
Zr114   O445      2.286 1_545     S 
Zr114   O447      2.090 1_445     S 
H115    C144      1.083 .         S 
H116    C145      1.083 .         S 
H117    C146      1.083 .         S 
H118    C147      1.083 .         S 
H119    C148      1.083 .         S 
H120    C149      1.083 .         S 
H121    C150      1.083 .         S 
H122    C151      1.083 .         S 
H123    C152      1.083 .         S 
H124    C153      1.083 .         S 
H125    C154      1.083 .         S 
H126    C155      1.083 .         S 
H127    C156      1.083 .         S 
H128    C157      1.083 .         S 
H129    C158      1.083 .         S 
H130    C159      1.083 .         S 
H131    C160      1.083 .         S 
H132    C161      1.083 .         S 
H133    C162      1.083 .         S 
H134    C163      1.083 .         S 
H135    C164      1.083 .         S 
H136    C165      1.083 .         S 
H137    C166      1.083 .         S 
H138    C167      1.083 .         S 
H139    O216      0.963 .         S 
H140    O217      0.963 .         S 
H141    O191      0.963 .         S 
H142    O218      0.963 .         S 
C143    C185      1.499 .         S 
C168    C183      1.499 .         S 
C169    C187      1.499 .         S 
C170    C189      1.499 .         S 
C171    C182      1.499 .         S 
C172    C190      1.499 .         S 
C173    C181      1.499 .         S 
C174    C184      1.499 .         S 
C175    C179      1.499 .         S 
C176    C186      1.499 .         S 
C177    C180      1.499 .         S 
C178    C188      1.499 .         S 
O191    Zr339     2.286 .         S 
O191    Zr451     2.286 1_556     S 
O192    Zr223     2.248 .         S 
O193    Zr224     2.248 1_655     S 
O196    Zr225     2.248 1_565     S 
O197    Zr226     2.248 1_565     S 
O198    Zr225     2.248 1_655     S 
O200    Zr228     2.248 .         S 
O201    Zr227     2.248 .         S 
O202    Zr228     2.248 1_655     S 
O204    Zr226     2.248 1_565     S 
O205    Zr227     2.248 .         S 
O208    Zr225     2.248 1_565     S 
O209    Zr223     2.248 .         S 
O210    Zr225     2.248 1_655     S 
O212    Zr228     2.248 1_655     S 
O213    Zr224     2.248 1_655     S 
O214    Zr228     2.248 .         S 
O216    Zr225     2.286 1_665     S 
O216    Zr454     2.286 1_566     S 
O217    Zr338     2.286 .         S 
O217    Zr227     2.286 1_565     S 
O217    Zr342     2.286 1_565     S 
O218    Zr340     2.286 .         S 
O218    Zr228     2.286 1_655     S 
O218    Zr223     2.286 1_655     S 
O219    Zr226     2.090 1_565     S 
O219    Zr338     2.090 .         S 
O219    Zr342     2.090 1_565     S 
O220    Zr225     2.090 1_565     S 
O220    Zr455     2.090 1_566     S 
O221    Zr339     2.090 .         S 
O221    Zr451     2.090 1_556     S 
O222    Zr228     2.090 .         S 
O222    Zr341     2.090 .         S 
O222    Zr223     2.090 .         S 
Zr223   O449      2.090 1_455     S 
Zr223   O419      2.286 .         S 
Zr224   O331      2.286 .         S 
Zr224   O333      2.090 1_455     S 
Zr225   O335      2.090 1_455     S 
Zr225   O305      2.286 .         S 
Zr226   O332      2.286 .         S 
Zr226   O444      2.286 1_545     S 
Zr227   O448      2.090 1_545     S 
Zr227   O336      2.090 .         S 
Zr228   O331      2.286 .         S 
Zr228   O333      2.090 1_455     S 
H229    C258      1.083 .         S 
H230    C259      1.083 .         S 
H231    C260      1.083 .         S 
H232    C261      1.083 .         S 
H233    C262      1.083 .         S 
H234    C263      1.083 .         S 
H235    C264      1.083 .         S 
H236    C265      1.083 .         S 
H237    C266      1.083 .         S 
H238    C267      1.083 .         S 
H239    C268      1.083 .         S 
H240    C269      1.083 .         S 
H241    C270      1.083 .         S 
H242    C271      1.083 .         S 
H243    C272      1.083 .         S 
H244    C273      1.083 .         S 
H245    C274      1.083 .         S 
H246    C275      1.083 .         S 
H247    C276      1.083 .         S 
H248    C277      1.083 .         S 
H249    C278      1.083 .         S 
H250    C279      1.083 .         S 
H251    C280      1.083 .         S 
H252    C281      1.083 .         S 
H253    O330      0.963 .         S 
H254    O331      0.963 .         S 
H255    O305      0.963 .         S 
H256    O332      0.963 .         S 
C257    C299      1.499 .         S 
C282    C297      1.499 .         S 
C283    C301      1.499 .         S 
C284    C303      1.499 .         S 
C285    C296      1.499 .         S 
C286    C304      1.499 .         S 
C287    C295      1.499 .         S 
C288    C298      1.499 .         S 
C289    C293      1.499 .         S 
C290    C300      1.499 .         S 
C291    C294      1.499 .         S 
C292    C302      1.499 .         S 
O305    Zr455     2.286 1_556     S 
O306    Zr337     2.248 .         S 
O307    Zr338     2.248 .         S 
O308    Zr452     2.248 1_556     S 
O309    Zr451     2.248 1_556     S 
O310    Zr339     2.248 .         S 
O311    Zr340     2.248 .         S 
O312    Zr339     2.248 .         S 
O313    Zr455     2.248 1_566     S 
O314    Zr342     2.248 .         S 
O315    Zr341     2.248 .         S 
O316    Zr342     2.248 1_565     S 
O317    Zr454     2.248 1_556     S 
O318    Zr340     2.248 .         S 
O319    Zr341     2.248 .         S 
O320    Zr455     2.248 1_566     S 
O321    Zr454     2.248 1_556     S 
O322    Zr339     2.248 .         S 
O323    Zr337     2.248 .         S 
O324    Zr339     2.248 .         S 
O325    Zr452     2.248 1_556     S 
O326    Zr342     2.248 1_565     S 
O327    Zr338     2.248 .         S 
O328    Zr342     2.248 .         S 
O329    Zr451     2.248 1_556     S 
O330    Zr339     2.286 .         S 
O330    Zr452     2.286 1_556     S 
O331    Zr341     2.286 .         S 
O332    Zr337     2.286 .         S 
O332    Zr342     2.286 .         S 
O333    Zr340     2.090 .         S 
O334    Zr339     2.090 .         S 
O334    Zr452     2.090 1_556     S 
O335    Zr454     2.090 1_556     S 
O336    Zr337     2.090 .         S 
O336    Zr342     2.090 .         S 
Zr337   O423      2.248 .         S 
Zr337   O443      2.248 .         S 
Zr338   O448      2.090 .         S 
Zr338   O422      2.248 .         S 
Zr338   O439      2.248 .         S 
Zr338   O444      2.286 .         S 
Zr340   O449      2.090 .         S 
Zr340   O431      2.248 .         S 
Zr340   O435      2.248 .         S 
Zr341   O419      2.286 .         S 
Zr341   O434      2.248 .         S 
Zr341   O427      2.248 .         S 
H343    C372      1.083 .         S 
H344    C373      1.083 .         S 
H345    C374      1.083 .         S 
H346    C375      1.083 .         S 
H347    C376      1.083 .         S 
H348    C377      1.083 .         S 
H349    C378      1.083 .         S 
H350    C379      1.083 .         S 
H351    C380      1.083 .         S 
H352    C381      1.083 .         S 
H353    C382      1.083 .         S 
H354    C383      1.083 .         S 
H355    C384      1.083 .         S 
H356    C385      1.083 .         S 
H357    C386      1.083 .         S 
H358    C387      1.083 .         S 
H359    C388      1.083 .         S 
H360    C389      1.083 .         S 
H361    C390      1.083 .         S 
H362    C391      1.083 .         S 
H363    C392      1.083 .         S 
H364    C393      1.083 .         S 
H365    C394      1.083 .         S 
H366    C395      1.083 .         S 
H367    O444      0.963 .         S 
H368    O445      0.963 .         S 
H369    O419      0.963 .         S 
H370    O446      0.963 .         S 
C371    C413      1.499 .         S 
C396    C411      1.499 .         S 
C397    C415      1.499 .         S 
C398    C417      1.499 .         S 
C399    C410      1.499 .         S 
C400    C418      1.499 .         S 
C401    C409      1.499 .         S 
C402    C412      1.499 .         S 
C403    C407      1.499 .         S 
C404    C414      1.499 .         S 
C405    C408      1.499 .         S 
C406    C416      1.499 .         S 
O420    Zr451     2.248 .         S 
O421    Zr452     2.248 .         S 
O424    Zr453     2.248 1_565     S 
O425    Zr454     2.248 1_565     S 
O426    Zr453     2.248 .         S 
O428    Zr456     2.248 .         S 
O429    Zr455     2.248 .         S 
O430    Zr456     2.248 .         S 
O432    Zr454     2.248 1_565     S 
O433    Zr455     2.248 .         S 
O436    Zr453     2.248 1_565     S 
O437    Zr451     2.248 .         S 
O438    Zr453     2.248 .         S 
O440    Zr456     2.248 .         S 
O441    Zr452     2.248 .         S 
O442    Zr456     2.248 .         S 
O444    Zr453     2.286 1_565     S 
O445    Zr455     2.286 1_565     S 
O446    Zr456     2.286 .         S 
O446    Zr451     2.286 .         S 
O447    Zr454     2.090 1_565     S 
O448    Zr453     2.090 1_565     S 
O450    Zr456     2.090 .         S 
O450    Zr451     2.090 .         S 
C29     O423      1.273 .         A 
C29     O438      1.273 .         A 
C30     C75       1.402 .         A 
C30     C46       1.391 .         A 
C31     C48       1.391 .         A 
C31     C415      1.402 .         A 
C32     C52       1.391 .         A 
C32     C69       1.402 .         A 
C33     C50       1.391 .         A 
C33     C413      1.402 .         A 
C34     C42       1.391 .         A 
C34     C67       1.402 .         A 
C35     C74       1.402 .         A 
C35     C47       1.391 .         A 
C36     C410      1.402 .         A 
C36     C43       1.391 .         A 
C37     C53       1.391 .         A 
C37     C414      1.402 .         A 
C38     C66       1.402 .         A 
C38     C45       1.391 .         A 
C39     C51       1.391 .         A 
C39     C412      1.402 .         A 
C40     C44       1.391 .         A 
C40     C407      1.402 .         A 
C41     C76       1.402 .         A 
C41     C49       1.391 .         A 
C42     C65       1.402 .         A 
C43     C408      1.402 .         A 
C44     C409      1.402 .         A 
C45     C68       1.402 .         A 
C46     C69       1.402 .         A 
C47     C70       1.402 .         A 
C48     C413      1.402 .         A 
C49     C72       1.402 .         A 
C50     C415      1.402 .         A 
C51     C416      1.402 .         A 
C52     C75       1.402 .         A 
C53     C418      1.402 .         A 
C54     O80       1.273 .         A 
C54     O94       1.273 .         A 
C55     O440      1.273 .         A 
C55     O421      1.273 .         A 
C56     O100      1.273 .         A 
C56     O78       1.273 .         A 
C57     O426      1.273 .         A 
C57     O93       1.273 .         A 
C58     O89       1.273 .         A 
C58     O443      1.273 .         A 
C59     O82       1.273 .         A 
C59     O434      1.273 .         A 
C60     O429      1.273 .         A 
C60     O95       1.273 .         A 
C61     O90       1.273 .         A 
C61     O430      1.273 .         A 
C62     O97       1.273 .         A 
C62     O427      1.273 .         A 
C63     O433      1.273 .         A 
C63     O86       1.273 .         A 
C64     O441      1.273 .         A 
C64     O83       1.273 .         A 
C65     C382      1.402 .         A 
C66     C385      1.402 .         A 
C67     C386      1.402 .         A 
C68     C378      1.402 .         A 
C70     C381      1.402 .         A 
C71     C390      1.402 .         A 
C71     C375      1.402 .         A 
C72     C379      1.402 .         A 
C73     C392      1.402 .         A 
C73     C373      1.402 .         A 
C74     C393      1.402 .         A 
C76     C395      1.402 .         A 
O79     C397      1.273 .         A 
O81     C371      1.273 .         A 
O84     C399      1.273 .         A 
O85     C404      1.273 .         A 
O87     C402      1.273 .         A 
O88     C403      1.273 .         A 
O91     C405      1.273 .         A 
O92     C401      1.273 .         A 
O96     C371      1.273 .         A 
O98     C397      1.273 .         A 
O99     C406      1.273 .         A 
O101    C400      1.273 .         A 
C143    O324      1.273 .         A 
C143    O309      1.273 .         A 
C144    C160      1.391 .         A 
C144    C189      1.402 .         A 
C145    C162      1.391 .         A 
C145    C301      1.402 .         A 
C146    C166      1.391 .         A 
C146    C183      1.402 .         A 
C147    C299      1.402 .         A 
C147    C164      1.391 .         A 
C148    C156      1.391 .         A 
C148    C181      1.402 .         A 
C149    C161      1.391 .         A 
C149    C188      1.402 .         A 
C150    C296      1.402 .         A 
C150    C157      1.391 .         A 
C151    C300      1.402 .         A 
C151    C167      1.391 .         A 
C152    C180      1.402 .         A 
C152    C159      1.391 .         A 
C153    C298      1.402 .         A 
C153    C165      1.391 .         A 
C154    C158      1.391 .         A 
C154    C293      1.402 .         A 
C155    C163      1.391 .         A 
C155    C190      1.402 .         A 
C156    C179      1.402 .         A 
C157    C294      1.402 .         A 
C158    C295      1.402 .         A 
C159    C182      1.402 .         A 
C160    C183      1.402 .         A 
C161    C184      1.402 .         A 
C162    C299      1.402 .         A 
C163    C186      1.402 .         A 
C164    C301      1.402 .         A 
C165    C302      1.402 .         A 
C166    C189      1.402 .         A 
C167    C304      1.402 .         A 
C168    O208      1.273 .         A 
C168    O194      1.273 .         A 
C169    O307      1.273 .         A 
C169    O326      1.273 .         A 
C170    O192      1.273 .         A 
C170    O214      1.273 .         A 
C171    O312      1.273 .         A 
C171    O207      1.273 .         A 
C172    O329      1.273 .         A 
C172    O203      1.273 .         A 
C173    O320      1.273 .         A 
C173    O196      1.273 .         A 
C174    O209      1.273 .         A 
C174    O315      1.273 .         A 
C175    O316      1.273 .         A 
C175    O204      1.273 .         A 
C176    O313      1.273 .         A 
C176    O211      1.273 .         A 
C177    O200      1.273 .         A 
C177    O319      1.273 .         A 
C178    O197      1.273 .         A 
C178    O327      1.273 .         A 
C179    C268      1.402 .         A 
C180    C271      1.402 .         A 
C181    C272      1.402 .         A 
C182    C264      1.402 .         A 
C184    C267      1.402 .         A 
C185    C276      1.402 .         A 
C185    C261      1.402 .         A 
C186    C265      1.402 .         A 
C187    C259      1.402 .         A 
C187    C278      1.402 .         A 
C188    C279      1.402 .         A 
C190    C281      1.402 .         A 
O193    C283      1.273 .         A 
O195    C257      1.273 .         A 
O198    C285      1.273 .         A 
O199    C290      1.273 .         A 
O201    C288      1.273 .         A 
O202    C289      1.273 .         A 
O205    C291      1.273 .         A 
O206    C287      1.273 .         A 
O210    C257      1.273 .         A 
O212    C283      1.273 .         A 
O213    C292      1.273 .         A 
O215    C286      1.273 .         A 
C258    C274      1.391 .         A 
C258    C303      1.402 .         A 
C259    C276      1.391 .         A 
C260    C280      1.391 .         A 
C260    C297      1.402 .         A 
C261    C278      1.391 .         A 
C262    C270      1.391 .         A 
C262    C295      1.402 .         A 
C263    C275      1.391 .         A 
C263    C302      1.402 .         A 
C264    C271      1.391 .         A 
C265    C281      1.391 .         A 
C266    C273      1.391 .         A 
C266    C294      1.402 .         A 
C267    C279      1.391 .         A 
C268    C272      1.391 .         A 
C269    C304      1.402 .         A 
C269    C277      1.391 .         A 
C270    C293      1.402 .         A 
C273    C296      1.402 .         A 
C274    C297      1.402 .         A 
C275    C298      1.402 .         A 
C277    C300      1.402 .         A 
C280    C303      1.402 .         A 
C282    O322      1.273 .         A 
C282    O308      1.273 .         A 
C284    O328      1.273 .         A 
C284    O306      1.273 .         A 
C285    O321      1.273 .         A 
C286    O317      1.273 .         A 
C287    O310      1.273 .         A 
C288    O323      1.273 .         A 
C289    O318      1.273 .         A 
C290    O325      1.273 .         A 
C291    O314      1.273 .         A 
C292    O311      1.273 .         A 
C372    C417      1.402 .         A 
C372    C388      1.391 .         A 
C373    C390      1.391 .         A 
C374    C394      1.391 .         A 
C374    C411      1.402 .         A 
C375    C392      1.391 .         A 
C376    C384      1.391 .         A 
C376    C409      1.402 .         A 
C377    C416      1.402 .         A 
C377    C389      1.391 .         A 
C378    C385      1.391 .         A 
C379    C395      1.391 .         A 
C380    C408      1.402 .         A 
C380    C387      1.391 .         A 
C381    C393      1.391 .         A 
C382    C386      1.391 .         A 
C383    C418      1.402 .         A 
C383    C391      1.391 .         A 
C384    C407      1.402 .         A 
C387    C410      1.402 .         A 
C388    C411      1.402 .         A 
C389    C412      1.402 .         A 
C391    C414      1.402 .         A 
C394    C417      1.402 .         A 
C396    O436      1.273 .         A 
C396    O422      1.273 .         A 
C398    O442      1.273 .         A 
C398    O420      1.273 .         A 
C399    O435      1.273 .         A 
C400    O431      1.273 .         A 
C401    O424      1.273 .         A 
C402    O437      1.273 .         A 
C403    O432      1.273 .         A 
C404    O439      1.273 .         A 
C405    O428      1.273 .         A 
C406    O425      1.273 .         A 
